Circuit: * E:\Cooper\Junior_Fall\ECE393\ECE393\better_Project1.asc

Per .tran options, skipping operating point for transient analysis.

Date: Sat Sep 24 15:52:18 2022
Total elapsed time: 0.161 seconds.

tnom = 27
temp = 27
method = modified trap
totiter = 20192
traniter = 20192
tranpoints = 10086
accept = 10071
rejected = 15
matrix size = 10
fillins = 6
solver = Normal
Matrix Compiler1: 898 bytes object code size  0.1/0.1/[0.1]
Matrix Compiler2: 924 bytes object code size  0.1/0.1/[0.1]

