Circuit: * E:\Cooper\Junior_Fall\ECE393\ECE393\Draft1.asc

WARNING: Node NC_01 is floating.

WARNING: Less than two connections to node NC_01.  This node is used by C6.
Direct Newton iteration for .op point succeeded.

Date: Sun Oct 02 19:16:09 2022
Total elapsed time: 0.044 seconds.

tnom = 27
temp = 27
method = modified trap
totiter = 2089
traniter = 2082
tranpoints = 1042
accept = 1042
rejected = 0
matrix size = 12
fillins = 6
solver = Normal
Matrix Compiler1: 998 bytes object code size  0.2/0.1/[0.1]
Matrix Compiler2: off  [0.1]/0.1/0.1

