Circuit: * E:\Cooper\Junior_Fall\ECE393\ECE393\Draft1.asc

Limiting rise time of source i1 to 1e-005
Limiting fall time of source i1 to 1e-005
WARNING: Node N003 is floating.

WARNING: Less than two connections to node N003.  This node is used by C4.
Per .tran options, skipping operating point for transient analysis.

Date: Sat Sep 24 15:48:37 2022
Total elapsed time: 0.059 seconds.

tnom = 27
temp = 27
method = modified trap
totiter = 2528
traniter = 2528
tranpoints = 1211
accept = 1167
rejected = 44
matrix size = 11
fillins = 4
solver = Normal
Matrix Compiler1:      48 opcodes  0.1/[0.1]/0.1
Matrix Compiler2: off  [0.1]/0.1/0.1

