Circuit: * C:\Users\Golde\Documents\Cooper\ECE393\ECE393\Project2.asc

Warning: Multiple definitions of model "2scr375p" Type: BJT
Warning: Multiple definitions of model "bc857b" Type: BJT
Warning: Multiple definitions of model "bc847c" Type: BJT
Warning: Multiple definitions of model "bc847b" Type: BJT
WARNING: Node NC_01 is floating.

WARNING: Less than two connections to node NC_01.  This node is used by C6.
Direct Newton iteration for .op point succeeded.

Date: Thu Nov 03 09:10:37 2022
Total elapsed time: 0.654 seconds.

tnom = 27
temp = 27
method = modified trap
totiter = 123116
traniter = 123109
tranpoints = 42692
accept = 28541
rejected = 14151
matrix size = 10
fillins = 2
solver = Normal
Matrix Compiler1: 738 bytes object code size  0.6/0.4/[0.4]
Matrix Compiler2: off  [0.4]/0.5/0.4

