Circuit: * C:\Users\Golde\Documents\Cooper\ECE393\ECE393\Project3.asc

Direct Newton iteration failed to find .op point.  (Use ".option noopiter" to skip.)
Starting Gmin stepping
Gmin = 10
Gmin = 1.07374
vernier = 0.5
vernier = 0.25
vernier = 0.125
Gmin = 1.02385
vernier = 0.0625
vernier = 0.03125
vernier = 0.015625
Gmin = 1.01955
vernier = 0.0078125
vernier = 0.00390625
Gmin = 1.0126
vernier = 0.00195313
vernier = 0.00260417
vernier = 0.00130208
Gmin = 1.00915
vernier = 0.00173611
vernier = 0.000868055
Gmin = 1.00685
vernier = 0.00115741
vernier = 0.000578703
Gmin = 1.0054
vernier = 0.000771604
vernier = 0.000578703
vernier = 0.000771604
vernier = 0.000578703
Gmin = 1.00448
vernier = 0.000434027
vernier = 0.000578703
vernier = 0.000434027
Gmin = 1.00382
Gmin = 0
Gmin stepping failed

Starting source stepping with srcstepmethod=0
Source Step = 3.0303%
Source Step = 33.3333%
Source Step = 63.6364%
Source Step = 93.9394%
Source stepping succeeded in finding the operating point.

Changing Tseed to 4.88281e-012

Date: Mon Nov 28 11:03:55 2022
Total elapsed time: 0.742 seconds.

tnom = 27
temp = 27
method = modified trap
totiter = 63348
traniter = 57499
tranpoints = 14542
accept = 10002
rejected = 4539
matrix size = 46
fillins = 34
solver = Normal
Matrix Compiler1: 4.23 KB object code size  0.6/0.3/[0.2]
Matrix Compiler2: 4.65 KB object code size  0.4/0.5/[0.3]

