Circuit: * E:\Cooper\Junior_Fall\ECE393\ECE393\projectbetter.asc

WARNING: Node NC_01 is floating.

WARNING: Less than two connections to node NC_01.  This node is used by C6.
Direct Newton iteration for .op point succeeded.

Date: Sun Oct 02 21:32:47 2022
Total elapsed time: 0.320 seconds.

tnom = 27
temp = 27
method = modified trap
totiter = 22437
traniter = 22430
tranpoints = 9696
accept = 6785
rejected = 2911
matrix size = 12
fillins = 6
solver = Normal
Matrix Compiler1: 998 bytes object code size  0.2/0.1/[0.1]
Matrix Compiler2: off  [0.1]/0.1/0.1

