Circuit: * E:\Cooper\Junior_Fall\ECE393\ECE393\Project2.asc

WARNING: Node NC_01 is floating.

WARNING: Less than two connections to node NC_01.  This node is used by C6.
Direct Newton iteration for .op point succeeded.

Date: Sun Nov 06 14:35:47 2022
Total elapsed time: 0.203 seconds.

tnom = 27
temp = 27
method = modified trap
totiter = 36652
traniter = 36643
tranpoints = 13771
accept = 9600
rejected = 4171
matrix size = 10
fillins = 2
solver = Normal
Matrix Compiler1: 738 bytes object code size  0.1/0.1/[0.1]
Matrix Compiler2: off  [0.1]/0.1/0.1

