Circuit: * E:\Cooper\Junior_Fall\ECE393\ECE393\Project1.asc

WARNING: Node NC_01 is floating.

WARNING: Less than two connections to node NC_01.  This node is used by C4.
Direct Newton iteration for .op point succeeded.

Date: Sat Sep 24 17:05:22 2022
Total elapsed time: 0.177 seconds.

tnom = 27
temp = 27
method = modified trap
totiter = 120354
traniter = 120344
tranpoints = 38884
accept = 29701
rejected = 9183
matrix size = 8
fillins = 2
solver = Normal
Matrix Compiler1: 558 bytes object code size  0.1/0.1/[0.1]
Matrix Compiler2: 676 bytes object code size  0.1/0.1/[0.1]

